*SPEF "ieee 1481-1999"
*DESIGN "SPI_Master_With_Multi_CS"
*DATE "17:27:43 Thursday June 05, 2025"
*VENDOR "The OpenROAD Project"
*PROGRAM "OpenROAD"
*VERSION "edf00dff99f6c40d67a30c0e22a8191c5d2ed9d6"
*DESIGN_FLOW "NAME_SCOPE LOCAL" "PIN_CAP NONE"
*DIVIDER /
*DELIMITER :
*BUS_DELIMITER []
*T_UNIT 1 NS
*C_UNIT 1 PF
*R_UNIT 1 OHM
*L_UNIT 1 HENRY

*NAME_MAP
*3 i_Clk
*4 i_Rst_L
*5 i_SPI_MISO
*6 i_Slave_Select[0]
*7 i_Slave_Select[1]
*8 i_TX_Byte[0]
*9 i_TX_Byte[1]
*10 i_TX_Byte[2]
*11 i_TX_Byte[3]
*12 i_TX_Byte[4]
*13 i_TX_Byte[5]
*14 i_TX_Byte[6]
*15 i_TX_Byte[7]
*16 i_TX_Count[0]
*17 i_TX_Count[1]
*18 i_TX_DV
*19 o_RX_Byte[0]
*20 o_RX_Byte[1]
*21 o_RX_Byte[2]
*22 o_RX_Byte[3]
*23 o_RX_Byte[4]
*24 o_RX_Byte[5]
*25 o_RX_Byte[6]
*26 o_RX_Byte[7]
*27 o_RX_Count[0]
*28 o_RX_Count[1]
*29 o_RX_DV
*30 o_SPI_CS[0]
*31 o_SPI_CS[1]
*32 o_SPI_CS[2]
*33 o_SPI_CS[3]
*34 o_SPI_Clk
*35 o_SPI_MOSI
*36 o_TX_Ready
*37 SPI_Master_Inst\.o_TX_Ready
*38 SPI_Master_Inst\.r_Leading_Edge
*39 SPI_Master_Inst\.r_RX_Bit_Count\[0\]
*40 SPI_Master_Inst\.r_RX_Bit_Count\[1\]
*41 SPI_Master_Inst\.r_RX_Bit_Count\[2\]
*42 SPI_Master_Inst\.r_SPI_Clk
*43 SPI_Master_Inst\.r_SPI_Clk_Count\[0\]
*44 SPI_Master_Inst\.r_SPI_Clk_Count\[1\]
*45 SPI_Master_Inst\.r_SPI_Clk_Edges\[0\]
*46 SPI_Master_Inst\.r_SPI_Clk_Edges\[1\]
*47 SPI_Master_Inst\.r_SPI_Clk_Edges\[2\]
*48 SPI_Master_Inst\.r_SPI_Clk_Edges\[3\]
*49 SPI_Master_Inst\.r_SPI_Clk_Edges\[4\]
*50 SPI_Master_Inst\.r_TX_Bit_Count\[0\]
*51 SPI_Master_Inst\.r_TX_Bit_Count\[1\]
*52 SPI_Master_Inst\.r_TX_Bit_Count\[2\]
*53 SPI_Master_Inst\.r_TX_Byte\[0\]
*54 SPI_Master_Inst\.r_TX_Byte\[1\]
*55 SPI_Master_Inst\.r_TX_Byte\[2\]
*56 SPI_Master_Inst\.r_TX_Byte\[3\]
*57 SPI_Master_Inst\.r_TX_Byte\[4\]
*58 SPI_Master_Inst\.r_TX_Byte\[5\]
*59 SPI_Master_Inst\.r_TX_Byte\[6\]
*60 SPI_Master_Inst\.r_TX_Byte\[7\]
*61 SPI_Master_Inst\.r_TX_DV
*62 SPI_Master_Inst\.r_Trailing_Edge
*63 _000_
*64 _001_
*65 _002_
*66 _003_
*67 _004_
*68 _005_
*69 _006_
*70 _007_
*71 _008_
*72 _009_
*73 _010_
*74 _011_
*75 _012_
*76 _013_
*77 _014_
*78 _015_
*79 _016_
*80 _017_
*81 _018_
*82 _019_
*83 _020_
*84 _021_
*85 _022_
*86 _023_
*87 _024_
*88 _025_
*89 _026_
*90 _027_
*91 _028_
*92 _029_
*93 _030_
*94 _031_
*95 _032_
*96 _033_
*97 _034_
*98 _035_
*99 _036_
*100 _037_
*101 _038_
*102 _039_
*103 _040_
*104 _041_
*105 _042_
*106 _043_
*107 _044_
*108 _045_
*109 _046_
*110 _047_
*111 _048_
*112 _049_
*113 _050_
*114 _051_
*115 _052_
*116 _053_
*117 _054_
*118 _055_
*119 _056_
*120 _057_
*121 _058_
*122 _059_
*123 _060_
*124 _061_
*125 _062_
*126 _063_
*127 _064_
*128 _065_
*129 _066_
*130 _067_
*131 _068_
*132 _069_
*133 _070_
*134 _071_
*135 _072_
*136 _073_
*137 _074_
*138 _075_
*139 _076_
*140 _077_
*141 _078_
*142 _079_
*143 _080_
*144 _081_
*145 _082_
*146 _083_
*147 _084_
*148 _085_
*149 _086_
*150 _087_
*151 _088_
*152 _089_
*153 _090_
*154 _091_
*155 _092_
*156 _093_
*157 _094_
*158 _095_
*159 _096_
*160 _097_
*161 _098_
*162 _099_
*163 _100_
*164 _101_
*165 _102_
*166 _103_
*167 _104_
*168 _105_
*169 _106_
*170 _107_
*171 _108_
*172 _109_
*173 _110_
*174 _111_
*175 _112_
*176 _113_
*177 _114_
*178 _115_
*179 _116_
*180 _117_
*181 clknet_0_i_Clk
*182 clknet_2_0__leaf_i_Clk
*183 clknet_2_1__leaf_i_Clk
*184 clknet_2_2__leaf_i_Clk
*185 clknet_2_3__leaf_i_Clk
*186 net1
*187 net10
*188 net11
*189 net12
*190 net13
*191 net14
*192 net15
*193 net16
*194 net17
*195 net18
*196 net19
*197 net2
*198 net20
*199 net21
*200 net22
*201 net23
*202 net24
*203 net25
*204 net26
*205 net27
*206 net28
*207 net29
*208 net3
*209 net30
*210 net31
*211 net32
*212 net33
*213 net34
*214 net35
*215 net36
*216 net37
*217 net38
*218 net39
*219 net4
*220 net40
*221 net41
*222 net42
*223 net43
*224 net44
*225 net45
*226 net46
*227 net47
*228 net48
*229 net49
*230 net5
*231 net50
*232 net51
*233 net52
*234 net53
*235 net54
*236 net55
*237 net56
*238 net57
*239 net58
*240 net59
*241 net6
*242 net60
*243 net61
*244 net62
*245 net63
*246 net64
*247 net65
*248 net66
*249 net67
*250 net68
*251 net69
*252 net7
*253 net70
*254 net71
*255 net72
*256 net73
*257 net74
*258 net75
*259 net8
*260 net9
*261 r_CS_Inactive_Count\[\-1\]
*262 r_CS_Inactive_Count\[0\]
*263 r_SM_CS\[0\]
*264 r_SM_CS\[1\]
*265 r_TX_Count\[0\]
*266 r_TX_Count\[1\]
*267 FILLER_0_103
*268 FILLER_0_107
*269 FILLER_0_111
*270 FILLER_0_113
*271 FILLER_0_118
*272 FILLER_0_15
*273 FILLER_0_27
*274 FILLER_0_29
*275 FILLER_0_3
*276 FILLER_0_41
*277 FILLER_0_53
*278 FILLER_0_57
*279 FILLER_0_72
*280 FILLER_0_83
*281 FILLER_0_93
*282 FILLER_10_105
*283 FILLER_10_117
*284 FILLER_10_138
*285 FILLER_10_141
*286 FILLER_10_24
*287 FILLER_10_29
*288 FILLER_10_3
*289 FILLER_11_107
*290 FILLER_11_111
*291 FILLER_11_113
*292 FILLER_11_117
*293 FILLER_11_23
*294 FILLER_11_31
*295 FILLER_11_40
*296 FILLER_11_48
*297 FILLER_11_57
*298 FILLER_12_119
*299 FILLER_12_141
*300 FILLER_12_20
*301 FILLER_12_3
*302 FILLER_12_49
*303 FILLER_12_56
*304 FILLER_12_67
*305 FILLER_12_83
*306 FILLER_12_90
*307 FILLER_13_109
*308 FILLER_13_127
*309 FILLER_13_145
*310 FILLER_13_19
*311 FILLER_13_31
*312 FILLER_13_43
*313 FILLER_13_55
*314 FILLER_13_57
*315 FILLER_13_7
*316 FILLER_13_82
*317 FILLER_13_94
*318 FILLER_14_109
*319 FILLER_14_139
*320 FILLER_14_141
*321 FILLER_14_15
*322 FILLER_14_27
*323 FILLER_14_29
*324 FILLER_14_3
*325 FILLER_14_41
*326 FILLER_14_49
*327 FILLER_14_79
*328 FILLER_14_83
*329 FILLER_14_85
*330 FILLER_14_97
*331 FILLER_15_104
*332 FILLER_15_108
*333 FILLER_15_131
*334 FILLER_15_139
*335 FILLER_15_15
*336 FILLER_15_23
*337 FILLER_15_3
*338 FILLER_15_52
*339 FILLER_15_91
*340 FILLER_15_97
*341 FILLER_16_139
*342 FILLER_16_141
*343 FILLER_16_15
*344 FILLER_16_19
*345 FILLER_16_29
*346 FILLER_16_3
*347 FILLER_16_54
*348 FILLER_16_66
*349 FILLER_16_78
*350 FILLER_17_106
*351 FILLER_17_119
*352 FILLER_17_145
*353 FILLER_17_32
*354 FILLER_17_63
*355 FILLER_17_7
*356 FILLER_17_75
*357 FILLER_17_81
*358 FILLER_18_141
*359 FILLER_18_23
*360 FILLER_18_29
*361 FILLER_18_62
*362 FILLER_18_74
*363 FILLER_18_82
*364 FILLER_19_109
*365 FILLER_19_113
*366 FILLER_19_146
*367 FILLER_19_35
*368 FILLER_19_7
*369 FILLER_19_76
*370 FILLER_19_97
*371 FILLER_1_102
*372 FILLER_1_125
*373 FILLER_1_146
*374 FILLER_1_15
*375 FILLER_1_27
*376 FILLER_1_3
*377 FILLER_1_39
*378 FILLER_1_51
*379 FILLER_1_55
*380 FILLER_1_57
*381 FILLER_1_69
*382 FILLER_20_105
*383 FILLER_20_117
*384 FILLER_20_141
*385 FILLER_20_23
*386 FILLER_20_57
*387 FILLER_20_79
*388 FILLER_20_83
*389 FILLER_20_93
*390 FILLER_21_113
*391 FILLER_21_142
*392 FILLER_21_3
*393 FILLER_21_35
*394 FILLER_21_94
*395 FILLER_22_114
*396 FILLER_22_118
*397 FILLER_22_141
*398 FILLER_22_29
*399 FILLER_22_3
*400 FILLER_22_43
*401 FILLER_22_7
*402 FILLER_22_85
*403 FILLER_23_109
*404 FILLER_23_121
*405 FILLER_23_140
*406 FILLER_23_146
*407 FILLER_23_15
*408 FILLER_23_21
*409 FILLER_23_29
*410 FILLER_23_3
*411 FILLER_23_44
*412 FILLER_23_50
*413 FILLER_23_66
*414 FILLER_23_77
*415 FILLER_23_86
*416 FILLER_23_92
*417 FILLER_24_109
*418 FILLER_24_125
*419 FILLER_24_137
*420 FILLER_24_141
*421 FILLER_24_15
*422 FILLER_24_27
*423 FILLER_24_29
*424 FILLER_24_3
*425 FILLER_24_37
*426 FILLER_24_42
*427 FILLER_24_57
*428 FILLER_24_71
*429 FILLER_24_77
*430 FILLER_24_85
*431 FILLER_24_89
*432 FILLER_2_138
*433 FILLER_2_15
*434 FILLER_2_27
*435 FILLER_2_29
*436 FILLER_2_3
*437 FILLER_2_41
*438 FILLER_2_94
*439 FILLER_3_103
*440 FILLER_3_15
*441 FILLER_3_27
*442 FILLER_3_3
*443 FILLER_3_39
*444 FILLER_3_51
*445 FILLER_3_55
*446 FILLER_3_57
*447 FILLER_3_75
*448 FILLER_3_97
*449 FILLER_4_101
*450 FILLER_4_130
*451 FILLER_4_15
*452 FILLER_4_27
*453 FILLER_4_29
*454 FILLER_4_3
*455 FILLER_4_41
*456 FILLER_4_53
*457 FILLER_4_85
*458 FILLER_4_97
*459 FILLER_5_109
*460 FILLER_5_146
*461 FILLER_5_15
*462 FILLER_5_27
*463 FILLER_5_3
*464 FILLER_5_39
*465 FILLER_5_51
*466 FILLER_5_55
*467 FILLER_5_57
*468 FILLER_5_69
*469 FILLER_5_73
*470 FILLER_5_95
*471 FILLER_6_139
*472 FILLER_6_141
*473 FILLER_6_15
*474 FILLER_6_27
*475 FILLER_6_29
*476 FILLER_6_3
*477 FILLER_6_41
*478 FILLER_6_53
*479 FILLER_6_61
*480 FILLER_7_121
*481 FILLER_7_135
*482 FILLER_7_15
*483 FILLER_7_27
*484 FILLER_7_3
*485 FILLER_7_35
*486 FILLER_8_107
*487 FILLER_8_127
*488 FILLER_8_139
*489 FILLER_8_145
*490 FILLER_8_15
*491 FILLER_8_26
*492 FILLER_8_29
*493 FILLER_8_3
*494 FILLER_8_40
*495 FILLER_8_48
*496 FILLER_8_82
*497 FILLER_8_91
*498 FILLER_9_103
*499 FILLER_9_111
*500 FILLER_9_113
*501 FILLER_9_119
*502 FILLER_9_140
*503 FILLER_9_146
*504 FILLER_9_15
*505 FILLER_9_3
*506 FILLER_9_46
*507 FILLER_9_91
*508 PHY_EDGE_ROW_0_Left_25
*509 PHY_EDGE_ROW_0_Right_0
*510 PHY_EDGE_ROW_10_Left_35
*511 PHY_EDGE_ROW_10_Right_10
*512 PHY_EDGE_ROW_11_Left_36
*513 PHY_EDGE_ROW_11_Right_11
*514 PHY_EDGE_ROW_12_Left_37
*515 PHY_EDGE_ROW_12_Right_12
*516 PHY_EDGE_ROW_13_Left_38
*517 PHY_EDGE_ROW_13_Right_13
*518 PHY_EDGE_ROW_14_Left_39
*519 PHY_EDGE_ROW_14_Right_14
*520 PHY_EDGE_ROW_15_Left_40
*521 PHY_EDGE_ROW_15_Right_15
*522 PHY_EDGE_ROW_16_Left_41
*523 PHY_EDGE_ROW_16_Right_16
*524 PHY_EDGE_ROW_17_Left_42
*525 PHY_EDGE_ROW_17_Right_17
*526 PHY_EDGE_ROW_18_Left_43
*527 PHY_EDGE_ROW_18_Right_18
*528 PHY_EDGE_ROW_19_Left_44
*529 PHY_EDGE_ROW_19_Right_19
*530 PHY_EDGE_ROW_1_Left_26
*531 PHY_EDGE_ROW_1_Right_1
*532 PHY_EDGE_ROW_20_Left_45
*533 PHY_EDGE_ROW_20_Right_20
*534 PHY_EDGE_ROW_21_Left_46
*535 PHY_EDGE_ROW_21_Right_21
*536 PHY_EDGE_ROW_22_Left_47
*537 PHY_EDGE_ROW_22_Right_22
*538 PHY_EDGE_ROW_23_Left_48
*539 PHY_EDGE_ROW_23_Right_23
*540 PHY_EDGE_ROW_24_Left_49
*541 PHY_EDGE_ROW_24_Right_24
*542 PHY_EDGE_ROW_2_Left_27
*543 PHY_EDGE_ROW_2_Right_2
*544 PHY_EDGE_ROW_3_Left_28
*545 PHY_EDGE_ROW_3_Right_3
*546 PHY_EDGE_ROW_4_Left_29
*547 PHY_EDGE_ROW_4_Right_4
*548 PHY_EDGE_ROW_5_Left_30
*549 PHY_EDGE_ROW_5_Right_5
*550 PHY_EDGE_ROW_6_Left_31
*551 PHY_EDGE_ROW_6_Right_6
*552 PHY_EDGE_ROW_7_Left_32
*553 PHY_EDGE_ROW_7_Right_7
*554 PHY_EDGE_ROW_8_Left_33
*555 PHY_EDGE_ROW_8_Right_8
*556 PHY_EDGE_ROW_9_Left_34
*557 PHY_EDGE_ROW_9_Right_9
*558 TAP_TAPCELL_ROW_0_50
*559 TAP_TAPCELL_ROW_0_51
*560 TAP_TAPCELL_ROW_0_52
*561 TAP_TAPCELL_ROW_0_53
*562 TAP_TAPCELL_ROW_0_54
*563 TAP_TAPCELL_ROW_10_77
*564 TAP_TAPCELL_ROW_10_78
*565 TAP_TAPCELL_ROW_10_79
*566 TAP_TAPCELL_ROW_11_80
*567 TAP_TAPCELL_ROW_11_81
*568 TAP_TAPCELL_ROW_12_82
*569 TAP_TAPCELL_ROW_12_83
*570 TAP_TAPCELL_ROW_12_84
*571 TAP_TAPCELL_ROW_13_85
*572 TAP_TAPCELL_ROW_13_86
*573 TAP_TAPCELL_ROW_14_87
*574 TAP_TAPCELL_ROW_14_88
*575 TAP_TAPCELL_ROW_14_89
*576 TAP_TAPCELL_ROW_15_90
*577 TAP_TAPCELL_ROW_15_91
*578 TAP_TAPCELL_ROW_16_92
*579 TAP_TAPCELL_ROW_16_93
*580 TAP_TAPCELL_ROW_16_94
*581 TAP_TAPCELL_ROW_17_95
*582 TAP_TAPCELL_ROW_17_96
*583 TAP_TAPCELL_ROW_18_97
*584 TAP_TAPCELL_ROW_18_98
*585 TAP_TAPCELL_ROW_18_99
*586 TAP_TAPCELL_ROW_19_100
*587 TAP_TAPCELL_ROW_19_101
*588 TAP_TAPCELL_ROW_1_55
*589 TAP_TAPCELL_ROW_1_56
*590 TAP_TAPCELL_ROW_20_102
*591 TAP_TAPCELL_ROW_20_103
*592 TAP_TAPCELL_ROW_20_104
*593 TAP_TAPCELL_ROW_21_105
*594 TAP_TAPCELL_ROW_21_106
*595 TAP_TAPCELL_ROW_22_107
*596 TAP_TAPCELL_ROW_22_108
*597 TAP_TAPCELL_ROW_22_109
*598 TAP_TAPCELL_ROW_23_110
*599 TAP_TAPCELL_ROW_23_111
*600 TAP_TAPCELL_ROW_24_112
*601 TAP_TAPCELL_ROW_24_113
*602 TAP_TAPCELL_ROW_24_114
*603 TAP_TAPCELL_ROW_24_115
*604 TAP_TAPCELL_ROW_24_116
*605 TAP_TAPCELL_ROW_2_57
*606 TAP_TAPCELL_ROW_2_58
*607 TAP_TAPCELL_ROW_2_59
*608 TAP_TAPCELL_ROW_3_60
*609 TAP_TAPCELL_ROW_3_61
*610 TAP_TAPCELL_ROW_4_62
*611 TAP_TAPCELL_ROW_4_63
*612 TAP_TAPCELL_ROW_4_64
*613 TAP_TAPCELL_ROW_5_65
*614 TAP_TAPCELL_ROW_5_66
*615 TAP_TAPCELL_ROW_6_67
*616 TAP_TAPCELL_ROW_6_68
*617 TAP_TAPCELL_ROW_6_69
*618 TAP_TAPCELL_ROW_7_70
*619 TAP_TAPCELL_ROW_7_71
*620 TAP_TAPCELL_ROW_8_72
*621 TAP_TAPCELL_ROW_8_73
*622 TAP_TAPCELL_ROW_8_74
*623 TAP_TAPCELL_ROW_9_75
*624 TAP_TAPCELL_ROW_9_76
*625 _118_
*626 _119_
*627 _120_
*628 _121_
*629 _122_
*630 _123_
*631 _124_
*632 _125_
*633 _126_
*634 _127_
*635 _128_
*636 _129_
*637 _130_
*638 _131_
*639 _132_
*640 _133_
*641 _134_
*642 _135_
*643 _136_
*644 _137_
*645 _138_
*646 _139_
*647 _140_
*648 _141_
*649 _142_
*650 _143_
*651 _144_
*652 _145_
*653 _146_
*654 _147_
*655 _148_
*656 _149_
*657 _150_
*658 _151_
*659 _152_
*660 _153_
*661 _154_
*662 _155_
*663 _156_
*664 _157_
*665 _158_
*666 _159_
*667 _160_
*668 _161_
*669 _162_
*670 _163_
*671 _164_
*672 _165_
*673 _166_
*674 _167_
*675 _168_
*676 _169_
*677 _170_
*678 _171_
*679 _172_
*680 _173_
*681 _174_
*682 _175_
*683 _176_
*684 _177_
*685 _178_
*686 _179_
*687 _180_
*688 _181_
*689 _182_
*690 _183_
*691 _184_
*692 _185_
*693 _186_
*694 _187_
*695 _188_
*696 _189_
*697 _190_
*698 _191_
*699 _192_
*700 _193_
*701 _194_
*702 _195_
*703 _196_
*704 _197_
*705 _198_
*706 _199_
*707 _200_
*708 _201_
*709 _202_
*710 _203_
*711 _204_
*712 _205_
*713 _206_
*714 _207_
*715 _208_
*716 _209_
*717 _210_
*718 _211_
*719 _212_
*720 _213_
*721 _214_
*722 _215_
*723 _216_
*724 _217_
*725 _218_
*726 _219_
*727 _220_
*728 _221_
*729 _222_
*730 _223_
*731 _224_
*732 _225_
*733 _226_
*734 _227_
*735 _228_
*736 _229_
*737 _230_
*738 _231_
*739 _232_
*740 _233_
*741 _234_
*742 _235_
*743 _236_
*744 _237_
*745 _238_
*746 _239_
*747 _240_
*748 _241_
*749 _242_
*750 _243_
*751 _244_
*752 _245_
*753 _246_
*754 _247_
*755 _248_
*756 _249_
*757 _250_
*758 _251_
*759 _252_
*760 _253_
*761 _254_
*762 _255_
*763 _256_
*764 _257_
*765 _258_
*766 _259_
*767 _260_
*768 _261_
*769 _262_
*770 _263_
*771 _264_
*772 _265_
*773 _266_
*774 _267_
*775 _268_
*776 _269_
*777 _270_
*778 _271_
*779 _272_
*780 _273_
*781 _274_
*782 _275_
*783 _276_
*784 _277_
*785 _278_
*786 _279_
*787 _280_
*788 _281_
*789 _282_
*790 _283_
*791 _284_
*792 _285_
*793 clkbuf_0_i_Clk
*794 clkbuf_2_0__f_i_Clk
*795 clkbuf_2_1__f_i_Clk
*796 clkbuf_2_2__f_i_Clk
*797 clkbuf_2_3__f_i_Clk
*798 clkload0
*799 clkload1
*800 clkload2
*801 fanout36
*802 fanout37
*803 fanout38
*804 fanout39
*805 fanout40
*806 fanout41
*807 fanout42
*808 fanout43
*809 hold1
*810 hold10
*811 hold11
*812 hold12
*813 hold13
*814 hold14
*815 hold15
*816 hold16
*817 hold17
*818 hold18
*819 hold19
*820 hold2
*821 hold20
*822 hold21
*823 hold22
*824 hold23
*825 hold24
*826 hold25
*827 hold26
*828 hold27
*829 hold28
*830 hold29
*831 hold3
*832 hold30
*833 hold31
*834 hold32
*835 hold4
*836 hold5
*837 hold6
*838 hold7
*839 hold8
*840 hold9
*841 input1
*842 input10
*843 input11
*844 input12
*845 input13
*846 input14
*847 input15
*848 input2
*849 input3
*850 input4
*851 input5
*852 input6
*853 input7
*854 input8
*855 input9
*856 max_cap34
*857 max_cap35
*858 output16
*859 output17
*860 output18
*861 output19
*862 output20
*863 output21
*864 output22
*865 output23
*866 output24
*867 output25
*868 output26
*869 output27
*870 output28
*871 output29
*872 output30
*873 output31
*874 output32
*875 output33

*PORTS
i_Clk I
i_Rst_L I
i_SPI_MISO I
i_Slave_Select[0] I
i_Slave_Select[1] I
i_TX_Byte[0] I
i_TX_Byte[1] I
i_TX_Byte[2] I
i_TX_Byte[3] I
i_TX_Byte[4] I
i_TX_Byte[5] I
i_TX_Byte[6] I
i_TX_Byte[7] I
i_TX_Count[0] I
i_TX_Count[1] I
i_TX_DV I
o_RX_Byte[0] O
o_RX_Byte[1] O
o_RX_Byte[2] O
o_RX_Byte[3] O
o_RX_Byte[4] O
o_RX_Byte[5] O
o_RX_Byte[6] O
o_RX_Byte[7] O
o_RX_Count[0] O
o_RX_Count[1] O
o_RX_DV O
o_SPI_CS[0] O
o_SPI_CS[1] O
o_SPI_CS[2] O
o_SPI_CS[3] O
o_SPI_Clk O
o_SPI_MOSI O
o_TX_Ready O

*D_NET *3 0.00904892
*CONN
*P i_Clk I
*I *793:A I *D sky130_fd_sc_hd__clkbuf_16
*CAP
1 i_Clk 0.00353595
2 *793:A 0.00353595
3 *793:A *632:A 0
4 *793:A *642:B 0
5 *793:A *663:B1 5.71472e-05
6 *793:A *665:B1 5.52302e-05
7 *793:A *670:A1 0
8 *793:A *670:A2 0.000200399
9 *793:A *671:B1 6.72127e-05
10 *793:A *702:A1 0
11 *793:A *705:A1 0
12 *793:A *707:A0 0.000115677
13 *793:A *714:A3 0
14 *793:A *716:B 1.37292e-05
15 *793:A *752:D 0.000340059
16 *793:A *766:CLK 0.000145306
17 *793:A *769:CLK 0.000148189
18 *793:A *769:D 0.000102545
19 *793:A *39:74 0
20 *793:A *155:27 0
21 *793:A *197:72 7.81303e-05
22 *793:A *216:133 4.71964e-05
23 *793:A *223:55 0.000606206
24 *793:A *223:57 0
*RES
1 i_Clk *793:A 48.7861 
*END

*D_NET *4 0.00345579
*CONN
*P i_Rst_L I
*I *841:A I *D sky130_fd_sc_hd__clkbuf_1
*CAP
1 i_Rst_L 0.00122349
2 *841:A 0.00122349
3 *841:A *724:A0 0
4 *841:A *731:S1 0.000158502
5 *841:A *734:A2 0
6 *841:A *735:A2 4.1331e-06
7 *841:A *786:D 0.000295144
8 *841:A *847:A 0.000135206
9 *841:A *51:33 0
10 *841:A *183:85 0.000199362
11 *841:A *216:39 0.000216467
12 *841:A *220:31 0
*RES
1 i_Rst_L *841:A 31.7944 
*END

*D_NET *5 0.00102253
*CONN
*P i_SPI_MISO I
*I *848:A I *D sky130_fd_sc_hd__clkbuf_2
*CAP
1 i_SPI_MISO 0.000482692
2 *848:A 0.000482692
3 *848:A o_RX_Byte[4] 0
4 *848:A o_RX_Byte[5] 0
5 *848:A *197:70 5.71472e-05
*RES
1 i_SPI_MISO *848:A 23.3536 
*END

*D_NET *6 0.000802693
*CONN
*P i_Slave_Select[0] I
*I *849:A I *D sky130_fd_sc_hd__buf_1
*CAP
1 i_Slave_Select[0] 0.000311533
2 *849:A 0.000311533
3 *849:A o_SPI_CS[3] 0
4 *849:A o_TX_Ready 8.97596e-05
5 *849:A *850:A 8.98678e-05
6 *849:A *124:73 0
*RES
1 i_Slave_Select[0] *849:A 19.8569 
*END

*D_NET *7 0.000596193
*CONN
*P i_Slave_Select[1] I
*I *850:A I *D sky130_fd_sc_hd__buf_1
*CAP
1 i_Slave_Select[1] 0.000197978
2 *850:A 0.000197978
3 *850:A o_SPI_CS[3] 7.58284e-05
4 *850:A *124:73 0
5 *850:A *219:8 3.454e-05
6 *849:A *850:A 8.98678e-05
*RES
1 i_Slave_Select[1] *850:A 19.3371 
*END

*D_NET *8 0.00195694
*CONN
*P i_TX_Byte[0] I
*I *851:A I *D sky130_fd_sc_hd__clkbuf_1
*CAP
1 i_TX_Byte[0] 0.000594267
2 *851:A 0.000594267
3 *851:A *719:A0 0.000359997
4 *851:A *801:A 0.000188586
5 *851:A *852:A 0
6 *851:A *215:6 0.000213776
7 *851:A *215:8 6.05161e-06
*RES
1 i_TX_Byte[0] *851:A 27.9964 
*END

*D_NET *9 0.0017693
*CONN
*P i_TX_Byte[1] I
*I *852:A I *D sky130_fd_sc_hd__clkbuf_1
*CAP
1 i_TX_Byte[1] 0.000658782
2 *852:A 0.000658782
3 *852:A *719:A1 0.000339197
4 *852:A *721:A1 0
5 *852:A *854:A 0
6 *852:A *215:20 0.000112536
7 *851:A *852:A 0
*RES
1 i_TX_Byte[1] *852:A 28.0679 
*END

*D_NET *10 0.00134855
*CONN
*P i_TX_Byte[2] I
*I *853:A I *D sky130_fd_sc_hd__clkbuf_1
*CAP
1 i_TX_Byte[2] 0.000524798
2 *853:A 0.000524798
3 *853:A *720:A1 1.32552e-05
4 *853:A *721:A1 9.90367e-05
5 *853:A *854:A 0.000186662
*RES
1 i_TX_Byte[2] *853:A 24.425 
*END

*D_NET *11 0.00159277
*CONN
*P i_TX_Byte[3] I
*I *854:A I *D sky130_fd_sc_hd__clkbuf_1
*CAP
1 i_TX_Byte[3] 0.000527782
2 *854:A 0.000527782
3 *854:A *720:A1 4.01768e-05
4 *854:A *721:A1 0.000219471
5 *854:A *776:D 5.31253e-05
6 *854:A *815:A 3.77662e-05
7 *852:A *854:A 0
8 *853:A *854:A 0.000186662
*RES
1 i_TX_Byte[3] *854:A 26.1929 
*END

*D_NET *12 0.00158556
*CONN
*P i_TX_Byte[4] I
*I *855:A I *D sky130_fd_sc_hd__clkbuf_1
*CAP
1 i_TX_Byte[4] 0.000302542
2 *855:A 0.000302542
3 *855:A o_SPI_MOSI 0.000115364
4 *855:A *847:A 8.57347e-05
5 *855:A *211:12 0.000128154
6 *855:A *216:79 0.000525576
7 *855:A *222:31 0.00012565
*RES
1 i_TX_Byte[4] *855:A 24.4979 
*END

*D_NET *13 0.00122948
*CONN
*P i_TX_Byte[5] I
*I *842:A I *D sky130_fd_sc_hd__clkbuf_1
*CAP
1 i_TX_Byte[5] 0.000567425
2 *842:A 0.000567425
3 *842:A *724:A1 3.93986e-05
4 *842:A *725:A1 0
5 *842:A *844:A 0
6 *842:A *57:14 0
7 *842:A *58:10 0
8 *842:A *216:39 5.52302e-05
*RES
1 i_TX_Byte[5] *842:A 24.5679 
*END

*D_NET *14 0.000848154
*CONN
*P i_TX_Byte[6] I
*I *843:A I *D sky130_fd_sc_hd__clkbuf_1
*CAP
1 i_TX_Byte[6] 0.00041527
2 *843:A 0.00041527
3 *843:A *801:A 1.76135e-05
4 *843:A *844:A 0
*RES
1 i_TX_Byte[6] *843:A 21.8357 
*END

*D_NET *15 0.00102347
*CONN
*P i_TX_Byte[7] I
*I *844:A I *D sky130_fd_sc_hd__clkbuf_1
*CAP
1 i_TX_Byte[7] 0.000440306
2 *844:A 0.000440306
3 *844:A *58:10 0.000142856
4 *842:A *844:A 0
5 *843:A *844:A 0
*RES
1 i_TX_Byte[7] *844:A 22.6571 
*END

*D_NET *16 0.000730144
*CONN
*P i_TX_Count[0] I
*I *845:A I *D sky130_fd_sc_hd__clkbuf_1
*CAP
1 i_TX_Count[0] 0.000247064
2 *845:A 0.000247064
3 *845:A *651:A1 2.06507e-05
4 *845:A *846:A 7.49865e-05
5 *845:A *216:79 0.000140379
6 *845:A *222:45 0
*RES
1 i_TX_Count[0] *845:A 19.6407 
*END

*D_NET *17 0.000491015
*CONN
*P i_TX_Count[1] I
*I *846:A I *D sky130_fd_sc_hd__clkbuf_1
*CAP
1 i_TX_Count[1] 0.000152147
2 *846:A 0.000152147
3 *846:A o_TX_Ready 8.00391e-05
4 *846:A *644:B 1.05524e-05
5 *846:A *216:79 2.11419e-05
6 *845:A *846:A 7.49865e-05
*RES
1 i_TX_Count[1] *846:A 18.1229 
*END

*D_NET *18 0.00310659
*CONN
*P i_TX_DV I
*I *847:A I *D sky130_fd_sc_hd__clkbuf_1
*CAP
1 i_TX_DV 0.000628928
2 *847:A 0.000628928
3 *847:A *735:A1 0.000185643
4 *847:A *779:D 0.000116928
5 *847:A *802:A 0.000143566
6 *847:A *808:A 0.000391748
7 *847:A *51:33 2.89016e-05
8 *847:A *221:8 0.000236806
9 *847:A *221:10 0.000142797
10 *847:A *221:26 0.000381404
11 *841:A *847:A 0.000135206
12 *855:A *847:A 8.57347e-05
*RES
1 i_TX_DV *847:A 31.3767 
*END

*D_NET *19 0.000993093
*CONN
*P o_RX_Byte[0] O
*I *858:X O *D sky130_fd_sc_hd__buf_2
*CAP
1 o_RX_Byte[0] 0.000496547
2 *858:X 0.000496547
3 o_RX_Byte[0] o_RX_Byte[3] 0
*RES
1 *858:X o_RX_Byte[0] 22.8536 
*END

*D_NET *20 0.000730375
*CONN
*P o_RX_Byte[1] O
*I *859:X O *D sky130_fd_sc_hd__buf_2
*CAP
1 o_RX_Byte[1] 0.00035389
2 *859:X 0.00035389
3 o_RX_Byte[1] o_RX_Byte[2] 2.25951e-05
*RES
1 *859:X o_RX_Byte[1] 20.891 
*END

*D_NET *21 0.00064812
*CONN
*P o_RX_Byte[2] O
*I *860:X O *D sky130_fd_sc_hd__buf_2
*CAP
1 o_RX_Byte[2] 0.000284782
2 *860:X 0.000284782
3 o_RX_Byte[2] *703:A 5.59597e-05
4 o_RX_Byte[1] o_RX_Byte[2] 2.25951e-05
*RES
1 *860:X o_RX_Byte[2] 19.4092 
*END

*D_NET *22 0.000993093
*CONN
*P o_RX_Byte[3] O
*I *861:X O *D sky130_fd_sc_hd__buf_2
*CAP
1 o_RX_Byte[3] 0.000496547
2 *861:X 0.000496547
3 o_RX_Byte[3] o_RX_Byte[7] 0
4 o_RX_Byte[0] o_RX_Byte[3] 0
*RES
1 *861:X o_RX_Byte[3] 22.8536 
*END

*D_NET *23 0.00122468
*CONN
*P o_RX_Byte[4] O
*I *862:X O *D sky130_fd_sc_hd__buf_2
*CAP
1 o_RX_Byte[4] 0.000572873
2 *862:X 0.000572873
3 o_RX_Byte[4] o_RX_Byte[7] 0
4 o_RX_Byte[4] *819:A 5.41609e-05
5 o_RX_Byte[4] *197:70 2.47724e-05
6 *848:A o_RX_Byte[4] 0
*RES
1 *862:X o_RX_Byte[4] 24.0857 
*END

*D_NET *24 0.00101034
*CONN
*P o_RX_Byte[5] O
*I *863:X O *D sky130_fd_sc_hd__buf_2
*CAP
1 o_RX_Byte[5] 0.000490252
2 *863:X 0.000490252
3 o_RX_Byte[5] o_RX_Byte[6] 0
4 o_RX_Byte[5] *863:A 1.83053e-05
5 o_RX_Byte[5] *197:12 1.15281e-05
6 *848:A o_RX_Byte[5] 0
*RES
1 *863:X o_RX_Byte[5] 22.8536 
*END

*D_NET *25 0.00106275
*CONN
*P o_RX_Byte[6] O
*I *864:X O *D sky130_fd_sc_hd__buf_2
*CAP
1 o_RX_Byte[6] 0.000516581
2 *864:X 0.000516581
3 o_RX_Byte[6] *864:A 1.92789e-05
4 o_RX_Byte[6] *197:12 1.03105e-05
5 o_RX_Byte[5] o_RX_Byte[6] 0
*RES
1 *864:X o_RX_Byte[6] 23.5143 
*END

*D_NET *26 0.00115277
*CONN
*P o_RX_Byte[7] O
*I *865:X O *D sky130_fd_sc_hd__buf_2
*CAP
1 o_RX_Byte[7] 0.000576384
2 *865:X 0.000576384
3 o_RX_Byte[3] o_RX_Byte[7] 0
4 o_RX_Byte[4] o_RX_Byte[7] 0
*RES
1 *865:X o_RX_Byte[7] 23.675 
*END

*D_NET *27 0.00255677
*CONN
*P o_RX_Count[0] O
*I *866:X O *D sky130_fd_sc_hd__buf_2
*CAP
1 o_RX_Count[0] 0.000962202
2 *866:X 0.000962202
3 o_RX_Count[0] o_RX_Count[1] 0
4 o_RX_Count[0] o_RX_DV 0
5 o_RX_Count[0] *660:A1 0.000537165
6 o_RX_Count[0] *660:B1 5.80706e-06
7 o_RX_Count[0] *660:C1 2.28598e-05
8 o_RX_Count[0] *866:A 2.27416e-05
9 o_RX_Count[0] *202:38 4.37931e-05
*RES
1 *866:X o_RX_Count[0] 29.8357 
*END

*D_NET *28 0.0015699
*CONN
*P o_RX_Count[1] O
*I *867:X O *D sky130_fd_sc_hd__buf_2
*CAP
1 o_RX_Count[1] 0.000784949
2 *867:X 0.000784949
3 o_RX_Count[0] o_RX_Count[1] 0
*RES
1 *867:X o_RX_Count[1] 37.7286 
*END

*D_NET *29 0.000925018
*CONN
*P o_RX_DV O
*I *868:X O *D sky130_fd_sc_hd__buf_2
*CAP
1 o_RX_DV 0.000453864
2 *868:X 0.000453864
3 o_RX_DV *868:A 1.72894e-05
4 o_RX_Count[0] o_RX_DV 0
*RES
1 *868:X o_RX_DV 22.4429 
*END

*D_NET *30 0.000668559
*CONN
*P o_SPI_CS[0] O
*I *869:X O *D sky130_fd_sc_hd__buf_2
*CAP
1 o_SPI_CS[0] 0.000242297
2 *869:X 0.000242297
3 o_SPI_CS[0] o_SPI_CS[1] 9.54485e-05
4 o_SPI_CS[0] *677:A0 5.45041e-05
5 o_SPI_CS[0] *205:10 3.40128e-05
*RES
1 *869:X o_SPI_CS[0] 19.7128 
*END

*D_NET *31 0.000561498
*CONN
*P o_SPI_CS[1] O
*I *870:X O *D sky130_fd_sc_hd__buf_2
*CAP
1 o_SPI_CS[1] 0.000168367
2 *870:X 0.000168367
3 o_SPI_CS[1] o_SPI_CS[2] 9.54485e-05
4 o_SPI_CS[1] *677:A0 3.38674e-05
5 o_SPI_CS[0] o_SPI_CS[1] 9.54485e-05
*RES
1 *870:X o_SPI_CS[1] 18.8021 
*END

*D_NET *32 0.000475312
*CONN
*P o_SPI_CS[2] O
*I *871:X O *D sky130_fd_sc_hd__buf_2
*CAP
1 o_SPI_CS[2] 0.000138918
2 *871:X 0.000138918
3 o_SPI_CS[2] o_SPI_CS[3] 9.28756e-05
4 o_SPI_CS[2] *677:A1 9.15186e-06
5 o_SPI_CS[1] o_SPI_CS[2] 9.54485e-05
*RES
1 *871:X o_SPI_CS[2] 18.1949 
*END

*D_NET *33 0.000718033
*CONN
*P o_SPI_CS[3] O
*I *872:X O *D sky130_fd_sc_hd__buf_2
*CAP
1 o_SPI_CS[3] 0.00021254
2 *872:X 0.00021254
3 o_SPI_CS[3] *680:C_N 2.09897e-05
4 o_SPI_CS[3] *219:21 0.00010326
5 o_SPI_CS[2] o_SPI_CS[3] 9.28756e-05
6 *849:A o_SPI_CS[3] 0
7 *850:A o_SPI_CS[3] 7.58284e-05
*RES
1 *872:X o_SPI_CS[3] 19.4092 
*END

*D_NET *34 0.000918207
*CONN
*P o_SPI_Clk O
*I *873:X O *D sky130_fd_sc_hd__buf_2
*CAP
1 o_SPI_Clk 0.000459104
2 *873:X 0.000459104
3 o_SPI_Clk *873:A 0
*RES
1 *873:X o_SPI_Clk 22.516 
*END

*D_NET *35 0.000785334
*CONN
*P o_SPI_MOSI O
*I *874:X O *D sky130_fd_sc_hd__buf_2
*CAP
1 o_SPI_MOSI 0.000277489
2 *874:X 0.000277489
3 o_SPI_MOSI *222:31 0.000114992
4 *855:A o_SPI_MOSI 0.000115364
*RES
1 *874:X o_SPI_MOSI 19.4092 
*END

*D_NET *36 0.000770548
*CONN
*P o_TX_Ready O
*I *875:X O *D sky130_fd_sc_hd__buf_2
*CAP
1 o_TX_Ready 0.000212591
2 *875:X 0.000212591
3 o_TX_Ready *875:A 0.000116928
4 o_TX_Ready *216:94 5.86388e-05
5 *846:A o_TX_Ready 8.00391e-05
6 *849:A o_TX_Ready 8.97596e-05
*RES
1 *875:X o_TX_Ready 19.4092 
*END

*D_NET *37 0.0158898
*CONN
*I *687:A3 I *D sky130_fd_sc_hd__a41o_1
*I *672:A1 I *D sky130_fd_sc_hd__a21o_1
*I *645:C_N I *D sky130_fd_sc_hd__or3b_1
*I *641:A_N I *D sky130_fd_sc_hd__nand2b_2
*I *691:A I *D sky130_fd_sc_hd__or2_1
*I *729:B1_N I *D sky130_fd_sc_hd__o21bai_1
*I *742:B1 I *D sky130_fd_sc_hd__a211oi_1
*I *741:A I *D sky130_fd_sc_hd__or4bb_1
*I *738:B1_N I *D sky130_fd_sc_hd__o21bai_1
*I *765:Q O *D sky130_fd_sc_hd__dfrtp_4
*CAP
1 *687:A3 0.000143551
2 *672:A1 0.000555582
3 *645:C_N 2.77679e-05
4 *641:A_N 2.86883e-05
5 *691:A 0.000199802
6 *729:B1_N 0.000392742
7 *742:B1 0
8 *741:A 0.000389824
9 *738:B1_N 0.000276334
10 *765:Q 0.000420184
11 *37:98 0.000925336
12 *37:90 0.0011579
13 *37:64 0.00153847
14 *37:56 0.00255351
15 *37:27 0.00110613
16 *37:18 0.000914035
17 *37:14 0.00130548
18 *641:A_N *641:B 2.58997e-05
19 *641:A_N *751:CLK 3.20153e-05
20 *641:A_N *791:RESET_B 0
21 *645:C_N *645:A 0
22 *645:C_N *649:A2 4.19624e-06
23 *645:C_N *675:A 4.28249e-05
24 *672:A1 *125:10 1.02504e-05
25 *672:A1 *125:25 3.52836e-05
26 *672:A1 *126:10 9.83539e-06
27 *672:A1 *127:29 9.25014e-06
28 *687:A3 *674:A1 5.33005e-05
29 *687:A3 *687:A4 0
30 *687:A3 *687:B1 4.81734e-05
31 *687:A3 *110:8 5.74499e-06
32 *687:A3 *263:37 2.77258e-05
33 *691:A *641:B 6.75007e-05
34 *691:A *670:C1 0
35 *691:A *751:CLK 4.35048e-05
36 *729:B1_N *743:A2 0.000595383
37 *729:B1_N *220:55 0.000100388
38 *738:B1_N *740:B1 0.000102207
39 *738:B1_N *788:D 6.13757e-06
40 *741:A *741:B 5.30637e-06
41 *741:A *741:C_N 8.36642e-05
42 *741:A *61:25 0.000197984
43 *741:A *178:21 0.00011389
44 *741:A *183:49 4.25622e-05
45 *741:A *183:121 3.56119e-05
46 *37:14 *216:133 0.000329339
47 *37:18 *666:A 7.26841e-05
48 *37:18 *667:B1 0
49 *37:18 *765:RESET_B 0
50 *37:18 *220:71 0
51 *37:27 *729:A1 7.48301e-06
52 *37:27 *740:B1 0.000171023
53 *37:27 *743:A2 7.77652e-05
54 *37:56 *626:A 0.000148903
55 *37:56 *667:B1 0
56 *37:56 *750:D 0
57 *37:56 *757:D 0
58 *37:56 *765:RESET_B 0
59 *37:56 *803:A 0
60 *37:64 *752:CLK 7.15962e-05
61 *37:64 *752:D 9.3111e-05
62 *37:64 *752:RESET_B 1.20135e-05
63 *37:64 *803:A 2.89114e-05
64 *37:64 *824:A 0.000316184
65 *37:64 *217:8 6.23284e-05
66 *37:90 *687:B1 0.000753287
67 *37:98 *646:A_N 0
68 *37:98 *263:30 0.000111218
*RES
1 *765:Q *37:14 20.2464 
2 *37:14 *37:18 10.3929 
3 *37:18 *738:B1_N 12.7107 
4 *37:18 *37:27 4.64286 
5 *37:27 *741:A 27.2643 
6 *37:27 *742:B1 9.3 
7 *37:27 *729:B1_N 15.175 
8 *37:14 *37:56 14.6429 
9 *37:56 *37:64 22.8393 
10 *37:64 *691:A 17.6393 
11 *37:64 *641:A_N 14.8357 
12 *37:56 *37:90 9.58929 
13 *37:90 *37:98 9.95254 
14 *37:98 *645:C_N 17.7904 
15 *37:98 *672:A1 18.6301 
16 *37:90 *687:A3 11.925 
*END

*D_NET *38 0.000917073
*CONN
*I *641:B I *D sky130_fd_sc_hd__nand2b_2
*I *691:B I *D sky130_fd_sc_hd__or2_1
*I *791:Q O *D sky130_fd_sc_hd__dfrtp_1
*CAP
1 *641:B 0.000110096
2 *691:B 0
3 *791:Q 0.000162172
4 *38:8 0.000272268
5 *641:B *791:RESET_B 0.000103041
6 *38:8 *637:A 0
7 *38:8 *670:B1 0
8 *38:8 *791:RESET_B 0.000176096
9 *641:A_N *641:B 2.58997e-05
10 *691:A *641:B 6.75007e-05
*RES
1 *791:Q *38:8 17.8714 
2 *38:8 *691:B 13.8 
3 *38:8 *641:B 16.8893 
*END

*D_NET *39 0.00893512
*CONN
*I *704:A I *D sky130_fd_sc_hd__or4_1
*I *709:A I *D sky130_fd_sc_hd__or3_1
*I *714:A1 I *D sky130_fd_sc_hd__o31a_1
*I *640:A I *D sky130_fd_sc_hd__nor2_1
*I *693:A I *D sky130_fd_sc_hd__nand2_1
*I *630:A I *D sky130_fd_sc_hd__inv_2
*I *703:A I *D sky130_fd_sc_hd__nor2_1
*I *761:Q O *D sky130_fd_sc_hd__dfstp_1
*CAP
1 *704:A 0
2 *709:A 0.000354473
3 *714:A1 0
4 *640:A 0
5 *693:A 0.000415054
6 *630:A 0
7 *703:A 0.000654223
8 *761:Q 0
9 *39:81 0.000425779
10 *39:74 0.000574743
11 *39:55 0.000669628
12 *39:27 0.000560959
13 *39:23 0.00112152
14 *39:4 0.00146365
15 *693:A *692:S 5.38444e-06
16 *693:A *695:B1 1.98839e-05
17 *693:A *708:B 0.000122206
18 *693:A *117:12 5.30637e-06
19 *693:A *123:12 6.03192e-05
20 *693:A *123:14 4.48647e-05
21 *703:A *697:A_N 0
22 *703:A *697:B 0
23 *703:A *836:A 5.97719e-05
24 *703:A *859:A 0.000160827
25 *703:A *195:12 4.57538e-05
26 *709:A *704:C 9.71123e-06
27 *709:A *709:B 1.99951e-05
28 *709:A *715:A1 3.34366e-05
29 *709:A *715:B1 0
30 *709:A *770:D 0
31 *709:A *773:CLK 0.000196321
32 *709:A *773:D 0.00010377
33 *709:A *799:A 0.000143862
34 *709:A *863:A 0.000122765
35 *709:A *164:48 0
36 *39:23 *711:B 0
37 *39:23 *184:6 3.1367e-05
38 *39:23 *184:14 0.000186037
39 *39:23 *217:68 0
40 *39:27 *692:S 9.83442e-05
41 *39:27 *115:6 1.59373e-05
42 *39:27 *123:14 0.000314839
43 *39:27 *123:18 0.000185124
44 *39:55 *711:B 0
45 *39:55 *40:51 2.49666e-05
46 *39:74 *702:A3 0